<?xml version="1.0" encoding="UTF-8"?>

<!-- generated on 2024-10-16 00:32:10 by 
<configuration xmlns:xsi="http://www.w3.org/2001/XMLSchema-instance" xsi:noNamespaceSchemaLocation="http://sumo.dlr.de/xsd/Configuration.xsd">

    <input>
        <osm-files value="TRUE"/>
    </input>

    <output>
        <opendrive-output value="TRUE"/>
    </output>

    <projection>
        <proj value="+proj=tmerc +lat_0=42.720501 +lon_0=-84.488083"/>
    </projection>

    <processing>
        <geometry.remove value="true"/>
        <offset.disable-normalization value="true"/>
        <roundabouts.guess value="true"/>
        <edges.join value="true"/>
    </processing>

    <building_defaults>
        <default.lanewidth value="3.350000"/>
        <default.sidewalk-width value="2.800000"/>
    </building_defaults>

    <tls_building>
        <tls.group-signals value="true"/>
    </tls_building>

    <ramp_guessing>
        <ramps.guess value="true"/>
    </ramp_guessing>

    <edge_removal>
        <keep-edges.by-type value="highway.motorway,highway.motorway_link,highway.trunk,highway.trunk_link,highway.primary,highway.primary_link,highway.secondary,highway.secondary_link,highway.tertiary,highway.tertiary_link,highway.unclassified,highway.residential,"/>
    </edge_removal>

    <junctions>
        <junctions.join value="true"/>
    </junctions>

    <pedestrian>
        <sidewalks.guess value="true"/>
    </pedestrian>

    <formats>
        <osm.sidewalks value="true"/>
        <osm.crossings value="true"/>
    </formats>

    <report>
        <aggregate-warnings value="5"/>
    </report>

</configuration>
-->

<OpenDRIVE>
    <header revMajor="1" revMinor="4" name="" version="1.00" date="Wed Oct 16 00:32:10 2024" north="1145.07" south="-149.21" east="1750.46" west="-460.73">
        <geoReference>
 <![CDATA[
 +proj=tmerc +lat_0=42.720501 +lon_0=-84.488083
]]>
        </geoReference>
    </header>
    <road name="Chestnut Road" length="353.66057027" id="550" junction="-1">
        <link>
            <predecessor elementType="junction" elementId="1"/>
            <successor elementType="junction" elementId="2"/>
        </link>
        <type s="0" type="town"/>
        <planView>
            <geometry s="0.00000000" x="64.20349603" y="218.85423285" hdg="1.71721476" length="0.20000000">
                <line/>
            </geometry>
            <geometry s="0.20000000" x="64.17431686" y="219.05209284" hdg="1.71721476" length="7.27349359">
                <paramPoly3 aU="0.00000000" bU="5.45507172" cU="5.45398042" dU="-3.63625424" aV="-0.00000000" bV="-0.00000000" cV="-0.19389945" dV="0.09808930" pRange="normalized"/>
            </geometry>
            <geometry s="7.47349359" x="63.20803093" y="226.26104980" hdg="1.70006822" length="27.01227095">
                <line/>
            </geometry>
            <geometry s="34.48576454" x="59.72582103" y="253.04793084" hdg="1.70006822" length="11.17592831">
                <paramPoly3 aU="0.00000000" bU="8.38193211" cU="8.38193211" dU="-5.58804526" aV="-0.00000000" bV="0.00000000" cV="-0.06746958" dV="0.02249023" pRange="normalized"/>
            </geometry>
            <geometry s="45.66169285" x="58.32972623" y="264.13629737" hdg="1.69201886" length="13.14170907">
                <line/>
            </geometry>
            <geometry s="58.80340192" x="56.74055377" y="277.18156656" hdg="1.69201886" length="11.17587021">
                <paramPoly3 aU="0.00000000" bU="8.38187710" cU="8.38187710" dU="-5.58808193" aV="-0.00000000" bV="-0.00000000" cV="0.09078056" dV="-0.03026107" pRange="normalized"/>
            </geometry>
            <geometry s="69.97927213" x="55.32905063" y="288.26790825" hdg="1.70284933" length="37.34723176">
                <line/>
            </geometry>
            <geometry s="107.32650390" x="50.41155747" y="325.28998250" hdg="1.70284933" length="11.17595633">
                <paramPoly3 aU="0.00000000" bU="8.38195865" cU="8.38195865" dU="-5.58802757" aV="-0.00000000" bV="-0.00000000" cV="-0.05265922" dV="0.01755325" pRange="normalized"/>
            </geometry>
            <geometry s="118.50246022" x="48.97483344" y="336.37319357" hdg="1.69656690" length="78.58112639">
                <line/>
            </geometry>
            <geometry s="197.08358661" x="39.11767503" y="414.33363131" hdg="1.69656690" length="3.56019001">
                <paramPoly3 aU="0.00000000" bU="2.67011835" cU="2.67037194" dU="-1.78033510" aV="-0.00000000" bV="-0.00000000" cV="-0.05029967" dV="0.04598738" pRange="normalized"/>
            </geometry>
            <geometry s="200.64377663" x="38.67537002" y="417.86620684" hdg="1.71056029" length="4.73087067">
                <paramPoly3 aU="0.00000000" bU="3.54806343" cU="3.54748696" dU="-2.36510883" aV="-0.00000000" bV="0.00000000" cV="0.21240402" dV="-0.15827513" pRange="normalized"/>
            </geometry>
            <geometry s="205.37464730" x="37.96277405" y="422.54298076" hdg="1.69646274" length="9.25674796">
                <paramPoly3 aU="0.00000000" bU="6.94249767" cU="6.94013788" dU="-4.62676036" aV="-0.00000000" bV="-0.00000000" cV="-0.35382718" dV="0.23301822" pRange="normalized"/>
            </geometry>
            <geometry s="214.63139527" x="36.92253675" y="431.74100918" hdg="1.69522403" length="73.67460695">
                <line/>
            </geometry>
            <geometry s="288.30600222" x="27.77901073" y="504.84602707" hdg="1.69522403" length="11.17034555">
                <paramPoly3 aU="0.00000000" bU="8.37664691" cU="8.37664008" dU="-5.59155734" aV="-0.00000000" bV="0.00000000" cV="-0.59903412" dV="0.19993292" pRange="normalized"/>
            </geometry>
            <geometry s="299.47634776" x="26.78977892" y="515.97099498" hdg="1.62374206" length="45.93628477">
                <line/>
            </geometry>
            <geometry s="345.41263253" x="24.35878486" y="561.84290933" hdg="1.62374206" length="8.04793773">
                <paramPoly3 aU="0.00000000" bU="6.03535289" cU="6.04201319" dU="-4.03155620" aV="-0.00000000" bV="-0.00000000" cV="-0.08020029" dV="-0.06595104" pRange="normalized"/>
            </geometry>
            <geometry s="353.46057027" x="24.07893910" y="569.88517912" hdg="1.56434795" length="0.20000000">
                <line/>
            </geometry>
        </planView>
        <elevationProfile>
            <elevation s="0" a="0.00" b="0" c="0" d="0"/>
        </elevationProfile>
        <lateralProfile/>
        <lanes>
            <laneSection s="0">
                <center>
                    <lane id="0" type="none" level="true">
                        <link/>
                        <roadMark sOffset="0" type="solid" weight="standard" color="standard" width="0.13" laneChange="none"/>
                    </lane>
                </center>
                <right>
                    <lane id="-1" type="driving" level="true">
                        <link/>
                        <width sOffset="0" a="3.35" b="0" c="0" d="0"/>
                        <roadMark sOffset="0" type="solid" weight="standard" color="standard" width="0.13" laneChange="none"/>
                        <speed sOffset="0" max="11.18"/>
                    </lane>
                    <lane id="-2" type="sidewalk" level="true">
                        <link/>
                        <width sOffset="0" a="2.80" b="0" c="0" d="0"/>
                        <roadMark sOffset="0" type="solid" weight="standard" color="standard" width="0.13" laneChange="none"/>
                        <speed sOffset="0" max="11.18"/>
                    </lane>
                 </right>
            </laneSection>
        </lanes>
        <objects/>
    </road>
    <road name="Wilson Road" length="27.42001844" id="551" junction="-1">
        <link>
            <predecessor elementType="junction" elementId="3"/>
            <successor elementType="junction" elementId="4"/>
        </link>
        <type s="0" type="town"/>
        <planView>
            <geometry s="0.00000000" x="876.42682770" y="303.96821323" hdg="3.12064894" length="27.42001844">
                <line/>
            </geometry>
        </planView>
        <elevationProfile>
            <elevation s="0" a="0.00" b="0" c="0" d="0"/>
        </elevationProfile>
        <lateralProfile/>
        <lanes>
            <laneSection s="0">
                <center>
                    <lane id="0" type="none" level="true">
                        <link/>
                        <roadMark sOffset="0" type="solid" weight="standard" color="standard" width="0.13" laneChange="none"/>
                    </lane>
                </center>
                <right>
                    <lane id="-1" type="driving" level="true">
                        <link/>
                        <width sOffset="0" a="3.35" b="0" c="0" d="0"/>
                        <roadMark sOffset="0" type="solid" weight="standard" color="standard" width="0.13" laneChange="none"/>
                        <speed sOffset="0" max="11.18"/>
                    </lane>
                    <lane id="-2" type="sidewalk" level="true">
                        <link/>
                        <width sOffset="0" a="2.80" b="0" c="0" d="0"/>
                        <roadMark sOffset="0" type="solid" weight="standard" color="standard" width="0.13" laneChange="none"/>
                        <speed sOffset="0" max="11.18"/>
                    </lane>
                 </right>
            </laneSection>
        </lanes>
        <objects/>
    </road>
    <road name="Wilson Road" length="49.55260639" id="552" junction="-1">
        <link>
            <predecessor elementType="junction" elementId="5"/>
            <successor elementType="junction" elementId="4"/>
        </link>
        <type s="0" type="town"/>
        <planView>
            <geometry s="0.00000000" x="759.25488145" y="306.39562579" hdg="-0.02068337" length="49.55260639">
                <line/>
            </geometry>
        </planView>
        <elevationProfile>
            <elevation s="0" a="0.00" b="0" c="0" d="0"/>
        </elevationProfile>
        <lateralProfile/>
        <lanes>
            <laneSection s="0">
                <center>
                    <lane id="0" type="none" level="true">
                        <link/>
                        <roadMark sOffset="0" type="solid" weight="standard" color="standard" width="0.13" laneChange="none"/>
                    </lane>
                </center>
                <right>
                    <lane id="-1" type="driving" level="true">
                        <link/>
                        <width sOffset="0" a="3.35" b="0" c="0" d="0"/>
                        <roadMark sOffset="0" type="solid" weight="standard" color="standard" width="0.13" laneChange="none"/>
                        <speed sOffset="0" max="11.18"/>
                    </lane>
                    <lane id="-2" type="sidewalk" level="true">
                        <link/>
                        <width sOffset="0" a="2.80" b="0" c="0" d="0"/>
                        <roadMark sOffset="0" type="solid" weight="standard" color="standard" width="0.13" laneChange="none"/>
                        <speed sOffset="0" max="11.18"/>
                    </lane>
                 </right>
            </laneSection>
        </lanes>
        <objects/>
    </road>
    <road name="Bogue Street" length="50.64497631" id="553" junction="-1">
        <link>
            <predecessor elementType="junction" elementId="6"/>
            <successor elementType="junction" elementId="7"/>
        </link>
        <type s="0" type="town"/>
        <planView>
            <geometry s="0.00000000" x="1338.16829963" y="491.64647501" hdg="1.93673324" length="0.20000000">
                <line/>
            </geometry>
            <geometry s="0.20000000" x="1338.09673477" y="491.83323280" hdg="1.93673324" length="13.47785223">
                <paramPoly3 aU="0.00000000" bU="10.10838759" cU="10.10834299" dU="-6.73890329" aV="-0.00000000" bV="0.00000000" cV="-0.05244266" dV="0.02763629" pRange="normalized"/>
            </geometry>
            <geometry s="13.67785223" x="1333.29720417" y="504.42755493" hdg="1.93455916" length="3.21628633">
                <paramPoly3 aU="0.00000000" bU="2.41220956" cU="2.41228035" dU="-1.60821364" aV="-0.00000000" bV="-0.00000000" cV="0.00618474" dV="-0.01068031" pRange="normalized"/>
            </geometry>
            <geometry s="16.89413856" x="1332.15707586" y="507.43497255" hdg="1.92640411" length="13.88952046">
                <paramPoly3 aU="0.00000000" bU="10.41713927" cU="10.41710260" dU="-6.94473985" aV="-0.00000000" bV="0.00000000" cV="-0.04791364" dV="0.02618047" pRange="normalized"/>
            </geometry>
            <geometry s="30.78365902" x="1327.34167767" y="520.46304527" hdg="1.92474474" length="0.15979178">
                <paramPoly3 aU="0.00000000" bU="0.11984353" cU="0.11982975" dU="-0.07988731" aV="-0.00000000" bV="0.00000000" cV="-0.00317954" dV="0.00186490" pRange="normalized"/>
            </geometry>
            <geometry s="30.94345080" x="1327.28752834" y="520.61338201" hdg="1.91836644" length="13.88997769">
                <paramPoly3 aU="0.00000000" bU="10.41748178" cU="10.41750041" dU="-6.94500648" aV="-0.00000000" bV="0.00000000" cV="-0.01881924" dV="0.01911470" pRange="normalized"/>
            </geometry>
            <geometry s="44.83342849" x="1322.55612725" y="533.67268018" hdg="1.92025803" length="5.81154781">
                <line/>
            </geometry>
        </planView>
        <elevationProfile>
            <elevation s="0" a="0.00" b="0" c="0" d="0"/>
        </elevationProfile>
        <lateralProfile/>
        <lanes>
            <laneSection s="0">
                <center>
                    <lane id="0" type="none" level="true">
                        <link/>
                        <roadMark sOffset="0" type="solid" weight="standard" color="standard" width="0.13" laneChange="none"/>
                    </lane>
                </center>
                <right>
                    <lane id="-1" type="driving" level="true">
                        <link/>
                        <width sOffset="0" a="3.35" b="0" c="0" d="0"/>
                        <roadMark sOffset="0" type="solid" weight="standard" color="standard" width="0.13" laneChange="none"/>
                        <speed sOffset="0" max="13.89"/>
                    </lane>
                    <lane id="-2" type="sidewalk" level="true">
                        <link/>
                        <width sOffset="0" a="2.80" b="0" c="0" d="0"/>
                        <roadMark sOffset="0" type="solid" weight="standard" color="standard" width="0.13" laneChange="none"/>
                        <speed sOffset="0" max="13.89"/>
                    </lane>
                 </right>
            </laneSection>
        </lanes>
        <objects/>
    </road>
    <road name="Farm Lane" length="190.36580924" id="554" junction="-1">
        <link>
            <predecessor elementType="junction" elementId="8"/>
            <successor elementType="junction" elementId="9"/>
        </link>
        <type s="0" type="town"/>
        <planView>
            <geometry s="0.00000000" x="828.97207999" y="323.73016177" hdg="1.54454545" length="33.71190214">
                <line/>
            </geometry>
            <geometry s="33.71190214" x="829.85694525" y="357.43044900" hdg="1.54454545" length="11.17569966">
                <paramPoly3 aU="0.00000000" bU="8.38171561" cU="8.38171559" dU="-5.58818956" aV="0.00000000" bV="-0.00000000" cV="0.13809366" dV="-0.04603434" pRange="normalized"/>
            </geometry>
            <geometry s="44.88760180" x="830.05824382" y="368.60425674" hdg="1.56102066" length="80.69774956">
                <line/>
            </geometry>
            <geometry s="125.58535137" x="830.84710521" y="449.29815045" hdg="1.56102066" length="11.17598832">
                <paramPoly3 aU="0.00000000" bU="8.38198894" cU="8.38198894" dU="-5.58800738" aV="0.00000000" bV="0.00000000" cV="-0.02723776" dV="0.00907928" pRange="normalized"/>
            </geometry>
            <geometry s="136.76133968" x="830.97451360" y="460.47340943" hdg="1.55777111" length="53.60446956">
                <line/>
            </geometry>
        </planView>
        <elevationProfile>
            <elevation s="0" a="0.00" b="0" c="0" d="0"/>
        </elevationProfile>
        <lateralProfile/>
        <lanes>
            <laneSection s="0">
                <center>
                    <lane id="0" type="none" level="true">
                        <link/>
                        <roadMark sOffset="0" type="solid" weight="standard" color="standard" width="0.13" laneChange="none"/>
                    </lane>
                </center>
                <right>
                    <lane id="-1" type="driving" level="true">
                        <link/>
                        <width sOffset="0" a="3.35" b="0" c="0" d="0"/>
                        <roadMark sOffset="0" type="broken" weight="standard" color="standard" width="0.13" laneChange="both"/>
                        <speed sOffset="0" max="11.18"/>
                    </lane>
                    <lane id="-2" type="driving" level="true">
                        <link/>
                        <width sOffset="0" a="3.35" b="0" c="0" d="0"/>
                        <roadMark sOffset="0" type="solid" weight="standard" color="standard" width="0.13" laneChange="none"/>
                        <speed sOffset="0" max="11.18"/>
                    </lane>
                    <lane id="-3" type="sidewalk" level="true">
                        <link/>
                        <width sOffset="0" a="2.80" b="0" c="0" d="0"/>
                        <roadMark sOffset="0" type="solid" weight="standard" color="standard" width="0.13" laneChange="none"/>
                        <speed sOffset="0" max="11.18"/>
                    </lane>
                 </right>
            </laneSection>
        </lanes>
        <objects/>
    </road>
    <road name="Farm Lane" length="10.78893964" id="555" junction="-1">
        <link>
            <predecessor elementType="junction" elementId="4"/>
            <successor elementType="junction" elementId="8"/>
        </link>
        <type s="0" type="town"/>
        <planView>
            <geometry s="0.00000000" x="828.70998103" y="312.64467117" hdg="1.54719308" length="10.78893964">
                <line/>
            </geometry>
        </planView>
        <elevationProfile>
            <elevation s="0" a="0.00" b="0" c="0" d="0"/>
        </elevationProfile>
        <lateralProfile/>
        <lanes>
            <laneSection s="0">
                <center>
                    <lane id="0" type="none" level="true">
                        <link/>
                        <roadMark sOffset="0" type="solid" weight="standard" color="standard" width="0.13" laneChange="none"/>
                    </lane>
                </center>
                <right>
                    <lane id="-1" type="driving" level="true">
                        <link/>
                        <width sOffset="0" a="3.35" b="0" c="0" d="0"/>
                        <roadMark sOffset="0" type="broken" weight="standard" color="standard" width="0.13" laneChange="both"/>
                        <speed sOffset="0" max="11.18"/>
                    </lane>
                    <lane id="-2" type="driving" level="true">
                        <link/>
                        <width sOffset="0" a="3.35" b="0" c="0" d="0"/>
                        <roadMark sOffset="0" type="solid" weight="standard" color="standard" width="0.13" laneChange="none"/>
                        <speed sOffset="0" max="11.18"/>
                    </lane>
                    <lane id="-3" type="sidewalk" level="true">
                        <link/>
                        <width sOffset="0" a="2.80" b="0" c="0" d="0"/>
                        <roadMark sOffset="0" type="solid" weight="standard" color="standard" width="0.13" laneChange="none"/>
                        <speed sOffset="0" max="11.18"/>
                    </lane>
                 </right>
            </laneSection>
        </lanes>
        <objects/>
    </road>
    <road name="Trowbridge Road" length="13.20742768" id="556" junction="-1">
        <link>
            <predecessor elementType="junction" elementId="10"/>
            <successor elementType="junction" elementId="11"/>
        </link>
        <type s="0" type="town"/>
        <planView>
            <geometry s="0.00000000" x="447.07454199" y="4.75217539" hdg="-0.50233713" length="13.20742768">
                <line/>
            </geometry>
        </planView>
        <elevationProfile>
            <elevation s="0" a="0.00" b="0" c="0" d="0"/>
        </elevationProfile>
        <lateralProfile/>
        <lanes>
            <laneSection s="0">
                <center>
                    <lane id="0" type="none" level="true">
                        <link/>
                        <roadMark sOffset="0" type="solid" weight="standard" color="standard" width="0.13" laneChange="none"/>
                    </lane>
                </center>
                <right>
                    <lane id="-1" type="driving" level="true">
                        <link/>
                        <width sOffset="0" a="3.35" b="0" c="0" d="0"/>
                        <roadMark sOffset="0" type="solid" weight="standard" color="standard" width="0.13" laneChange="none"/>
                        <speed sOffset="0" max="22.22"/>
                    </lane>
                 </right>
            </laneSection>
        </lanes>
        <objects/>
    </road>
    <road name="Farm Lane" length="53.44986919" id="557" junction="-1">
        <link>
            <predecessor elementType="junction" elementId="12"/>
            <successor elementType="junction" elementId="13"/>
        </link>
        <type s="0" type="town"/>
        <planView>
            <geometry s="0.00000000" x="835.69833316" y="750.71220813" hdg="1.56313106" length="11.24225531">
                <line/>
            </geometry>
            <geometry s="11.24225531" x="835.78450722" y="761.95413317" hdg="1.56313106" length="11.17590610">
                <paramPoly3 aU="0.00000000" bU="8.38191108" cU="8.38191108" dU="-5.58805927" aV="0.00000000" bV="-0.00000000" cV="-0.07721566" dV="0.02573910" pRange="normalized"/>
            </geometry>
            <geometry s="22.41816141" x="835.92164665" y="773.12917317" hdg="1.55391895" length="31.03170777">
                <line/>
            </geometry>
        </planView>
        <elevationProfile>
            <elevation s="0" a="0.00" b="0" c="0" d="0"/>
        </elevationProfile>
        <lateralProfile/>
        <lanes>
            <laneSection s="0">
                <center>
                    <lane id="0" type="none" level="true">
                        <link/>
                        <roadMark sOffset="0" type="solid" weight="standard" color="standard" width="0.13" laneChange="none"/>
                    </lane>
                </center>
                <right>
                    <lane id="-1" type="driving" level="true">
                        <link/>
                        <width sOffset="0" a="3.35" b="0" c="0" d="0"/>
                        <roadMark sOffset="0" type="solid" weight="standard" color="standard" width="0.13" laneChange="none"/>
                        <speed sOffset="0" max="11.18"/>
                    </lane>
                    <lane id="-2" type="sidewalk" level="true">
                        <link/>
                        <width sOffset="0" a="2.80" b="0" c="0" d="0"/>
                        <roadMark sOffset="0" type="solid" weight="standard" color="standard" width="0.13" laneChange="none"/>
                        <speed sOffset="0" max="11.18"/>
                    </lane>
                 </right>
            </laneSection>
        </lanes>
        <objects/>
    </road>
    <road name="Wilson Road" length="11.45681575" id="558" junction="-1">
        <link>
            <predecessor elementType="junction" elementId="14"/>
            <successor elementType="junction" elementId="15"/>
        </link>
        <type s="0" type="town"/>
        <planView>
            <geometry s="0.00000000" x="1306.56679528" y="304.44693988" hdg="-0.00096205" length="11.45681575">
                <line/>
            </geometry>
        </planView>
        <elevationProfile>
            <elevation s="0" a="0.00" b="0" c="0" d="0"/>
        </elevationProfile>
        <lateralProfile/>
        <lanes>
            <laneSection s="0">
                <center>
                    <lane id="0" type="none" level="true">
                        <link/>
                        <roadMark sOffset="0" type="solid" weight="standard" color="standard" width="0.13" laneChange="none"/>
                    </lane>
                </center>
                <right>
                    <lane id="-1" type="driving" level="true">
                        <link/>
                        <width sOffset="0" a="3.35" b="0" c="0" d="0"/>
                        <roadMark sOffset="0" type="solid" weight="standard" color="standard" width="0.13" laneChange="none"/>
                        <speed sOffset="0" max="11.18"/>
                    </lane>
                    <lane id="-2" type="sidewalk" level="true">
                        <link/>
                        <width sOffset="0" a="2.80" b="0" c="0" d="0"/>
                        <roadMark sOffset="0" type="solid" weight="standard" color="standard" width="0.13" laneChange="none"/>
                        <speed sOffset="0" max="11.18"/>
                    </lane>
                 </right>
            </laneSection>
        </lanes>
        <objects/>
    </road>
    <road name="Wilson Road" length="193.92890108" id="559" junction="-1">
        <link>
            <predecessor elementType="junction" elementId="16"/>
            <successor elementType="junction" elementId="14"/>
        </link>
        <type s="0" type="town"/>
        <planView>
            <geometry s="0.00000000" x="1112.33792627" y="304.52486548" hdg="-0.00038868" length="35.76077910">
                <line/>
            </geometry>
            <geometry s="35.76077910" x="1148.09870267" y="304.51096585" hdg="-0.00038868" length="11.17600000">
                <paramPoly3 aU="0.00000000" bU="8.38200000" cU="8.38200000" dU="-5.58800000" aV="0.00000000" bV="0.00000000" cV="-0.00033985" dV="0.00011328" pRange="normalized"/>
            </geometry>
            <geometry s="46.93677910" x="1159.27470174" y="304.50639535" hdg="-0.00042923" length="44.36445760">
                <line/>
            </geometry>
            <geometry s="91.30123670" x="1203.63915525" y="304.48735284" hdg="-0.00042923" length="11.17600000">
                <paramPoly3 aU="0.00000000" bU="8.38200000" cU="8.38200000" dU="-5.58800000" aV="0.00000000" bV="0.00000000" cV="0.00033174" dV="-0.00011058" pRange="normalized"/>
            </geometry>
            <geometry s="102.47723670" x="1214.81515431" y="304.48277693" hdg="-0.00038965" length="91.45166438">
                <line/>
            </geometry>
        </planView>
        <elevationProfile>
            <elevation s="0" a="0.00" b="0" c="0" d="0"/>
        </elevationProfile>
        <lateralProfile/>
        <lanes>
            <laneSection s="0">
                <center>
                    <lane id="0" type="none" level="true">
                        <link/>
                        <roadMark sOffset="0" type="solid" weight="standard" color="standard" width="0.13" laneChange="none"/>
                    </lane>
                </center>
                <right>
                    <lane id="-1" type="driving" level="true">
                        <link/>
                        <width sOffset="0" a="3.35" b="0" c="0" d="0"/>
                        <roadMark sOffset="0" type="solid" weight="standard" color="standard" width="0.13" laneChange="none"/>
                        <speed sOffset="0" max="11.18"/>
                    </lane>
                    <lane id="-2" type="sidewalk" level="true">
                        <link/>
                        <width sOffset="0" a="2.80" b="0" c="0" d="0"/>
                        <roadMark sOffset="0" type="solid" weight="standard" color="standard" width="0.13" laneChange="none"/>
                        <speed sOffset="0" max="11.18"/>
                    </lane>
                 </right>
            </laneSection>
        </lanes>
        <objects/>
    </road>
    <road name="Wilson Road" length="112.99926959" id="560" junction="-1">
        <link>
            <predecessor elementType="junction" elementId="17"/>
            <successor elementType="junction" elementId="18"/>
        </link>
        <type s="0" type="town"/>
        <planView>
            <geometry s="0.00000000" x="344.96825444" y="306.22239092" hdg="0.01786023" length="24.26653300">
                <line/>
            </geometry>
            <geometry s="24.26653300" x="369.23091718" y="306.65577365" hdg="0.01786023" length="11.17474189">
                <paramPoly3 aU="0.00000000" bU="8.38080873" cU="8.38080839" dU="-5.58879361" aV="0.00000000" bV="0.00000000" cV="-0.28262333" dV="0.09423455" pRange="normalized"/>
            </geometry>
            <geometry s="35.44127489" x="380.40532323" y="306.66695346" hdg="-0.01585926" length="22.32777988">
                <line/>
            </geometry>
            <geometry s="57.76905477" x="402.73029527" y="306.31286626" hdg="-0.01585926" length="11.17558408">
                <paramPoly3 aU="0.00000000" bU="8.38160616" cU="8.38160612" dU="-5.58826250" aV="0.00000000" bV="0.00000000" cV="0.16250731" dV="-0.05417419" pRange="normalized"/>
            </geometry>