<?xml version="1.0" encoding="UTF-8"?>

<!-- generated on 2024-10-02 09:35:02 by 
<configuration xmlns:xsi="http://www.w3.org/2001/XMLSchema-instance" xsi:noNamespaceSchemaLocation="http://sumo.dlr.de/xsd/Configuration.xsd">

    <input>
        <osm-files value="TRUE"/>
    </input>

    <output>
        <opendrive-output value="TRUE"/>
    </output>

    <projection>
        <proj value="+proj=tmerc +lat_0=42.730473 +lon_0=-84.487526"/>
    </projection>

    <processing>
        <geometry.remove value="true"/>
        <offset.disable-normalization value="true"/>
        <roundabouts.guess value="true"/>
        <edges.join value="true"/>
    </processing>

    <building_defaults>
        <default.lanewidth value="3.350000"/>
        <default.sidewalk-width value="2.800000"/>
    </building_defaults>

    <tls_building>
        <tls.group-signals value="true"/>
    </tls_building>

    <ramp_guessing>
        <ramps.guess value="true"/>
    </ramp_guessing>

    <edge_removal>
        <keep-edges.by-type value="highway.motorway,highway.motorway_link,highway.trunk,highway.trunk_link,highway.primary,highway.primary_link,highway.secondary,highway.secondary_link,highway.tertiary,highway.tertiary_link,highway.unclassified,highway.residential,"/>
    </edge_removal>

    <junctions>
        <junctions.join value="true"/>
    </junctions>

    <pedestrian>
        <sidewalks.guess value="true"/>
    </pedestrian>

    <formats>
        <osm.sidewalks value="true"/>
        <osm.crossings value="true"/>
    </formats>

    <report>
        <aggregate-warnings value="5"/>
    </report>

</configuration>
-->

<OpenDRIVE>
    <header revMajor="1" revMinor="4" name="" version="1.00" date="Wed Oct  2 09:35:02 2024" north="512.95" south="-368.92" east="979.67" west="-222.56">
        <geoReference>
 <![CDATA[
 +proj=tmerc +lat_0=42.730473 +lon_0=-84.487526
]]>
        </geoReference>
    </header>
    <road name="East Kalamazoo Street" length="66.17009242" id="250" junction="-1">
        <link>
            <predecessor elementType="junction" elementId="1"/>
            <successor elementType="junction" elementId="2"/>
        </link>
        <type s="0" type="town"/>
        <planView>
            <geometry s="0.00000000" x="-54.46057472" y="73.20687259" hdg="0.74247906" length="7.52498386">
                <line/>
            </geometry>
            <geometry s="7.52498386" x="-48.91620654" y="78.29463866" hdg="0.74247906" length="6.76167136">
                <paramPoly3 aU="0.00000000" bU="5.06749877" cU="5.02022260" dU="-3.36973577" aV="0.00000000" bV="0.00000000" cV="-1.33383752" dV="0.61190135" pRange="normalized"/>
            </geometry>
            <geometry s="14.28665522" x="-43.47831741" y="82.30486112" hdg="0.57755458" length="6.75788681">
                <paramPoly3 aU="0.00000000" bU="5.06670007" cU="5.06573677" dU="-3.38815003" aV="0.00000000" bV="0.00000000" cV="-0.59528461" dV="0.20448033" pRange="normalized"/>
            </geometry>
            <geometry s="21.04454203" x="-37.61458184" y="85.65966929" hdg="0.46340068" length="6.76265074">
                <paramPoly3 aU="0.00000000" bU="5.07028101" cU="5.07104768" dU="-3.39163980" aV="0.00000000" bV="0.00000000" cV="-0.56386397" dV="0.18390905" pRange="normalized"/>
            </geometry>
            <geometry s="27.80719277" x="-31.40689430" y="88.33684711" hdg="0.34955156" length="6.75783134">
                <paramPoly3 aU="0.00000000" bU="5.06662387" cU="5.06659132" dU="-3.38894268" aV="0.00000000" bV="-0.00000000" cV="-0.58494775" dV="0.19565579" pRange="normalized"/>
            </geometry>
            <geometry s="34.56502411" x="-24.93714896" y="90.28085205" hdg="0.23424364" length="6.76567360">
                <paramPoly3 aU="0.00000000" bU="5.07252285" cU="5.07220607" dU="-3.39257498" aV="0.00000000" bV="0.00000000" cV="-0.58732941" dV="0.19809031" pRange="normalized"/>
            </geometry>
            <geometry s="41.33069771" x="-18.27904989" y="91.46946753" hdg="0.11957451" length="6.76367783">
                <paramPoly3 aU="0.00000000" bU="5.07102740" cU="5.07125205" dU="-3.39193019" aV="0.00000000" bV="0.00000000" cV="-0.57758178" dV="0.19169673" pRange="normalized"/>
            </geometry>
            <geometry s="48.09437554" x="-11.53086948" y="91.89158549" hdg="0.00493385" length="6.76761361">
                <paramPoly3 aU="0.00000000" bU="5.07428556" cU="5.06795248" dU="-3.38770570" aV="0.00000000" bV="0.00000000" cV="-0.64164709" dV="0.25282865" pRange="normalized"/>
            </geometry>
            <geometry s="54.86198914" x="-4.77450098" y="91.53609752" hdg="-0.09867647" length="4.97913254">
                <paramPoly3 aU="0.00000000" bU="3.73374884" cU="3.71193543" dU="-2.47712974" aV="0.00000000" bV="0.00000000" cV="-0.69873704" dV="0.38688252" pRange="normalized"/>
            </geometry>
            <geometry s="59.84112168" x="0.13916086" y="90.73627588" hdg="-0.16214769" length="1.14635793">
                <paramPoly3 aU="0.00000000" bU="0.85942197" cU="0.86387450" dU="-0.57740722" aV="0.00000000" bV="0.00000000" cV="0.07580005" dV="-0.07972201" pRange="normalized"/>
            </geometry>
            <geometry s="60.98747961" x="1.26938615" y="90.54741518" hdg="-0.26421416" length="5.18261282">
                <line/>
            </geometry>
        </planView>
        <elevationProfile>
            <elevation s="0" a="0.00" b="0" c="0" d="0"/>
        </elevationProfile>
        <lateralProfile/>
        <lanes>
            <laneSection s="0">
                <center>
                    <lane id="0" type="none" level="true">
                        <link/>
                        <roadMark sOffset="0" type="solid" weight="standard" color="standard" width="0.13" laneChange="none"/>
                    </lane>
                </center>
                <right>
                    <lane id="-1" type="driving" level="true">
                        <link/>
                        <width sOffset="0" a="3.35" b="0" c="0" d="0"/>
                        <roadMark sOffset="0" type="solid" weight="standard" color="standard" width="0.13" laneChange="none"/>
                        <speed sOffset="0" max="11.18"/>
                    </lane>
                    <lane id="-2" type="sidewalk" level="true">
                        <link/>
                        <width sOffset="0" a="2.80" b="0" c="0" d="0"/>
                        <roadMark sOffset="0" type="solid" weight="standard" color="standard" width="0.13" laneChange="none"/>
                        <speed sOffset="0" max="11.18"/>
                    </lane>
                 </right>
            </laneSection>
        </lanes>
        <objects/>
    </road>
    <road name="Charles Street" length="95.25320086" id="251" junction="-1">
        <link>
            <predecessor elementType="junction" elementId="3"/>
            <successor elementType="junction" elementId="4"/>
        </link>
        <type s="0" type="town"/>
        <planView>
            <geometry s="0.00000000" x="660.18402780" y="512.37832410" hdg="-1.85357241" length="2.79568879">
                <line/>
            </geometry>
            <geometry s="2.79568879" x="659.40396758" y="509.69366736" hdg="-1.85357241" length="13.88019277">
                <paramPoly3 aU="-0.00000000" bU="10.40821629" cU="10.40819976" dU="-6.95116157" aV="0.00000000" bV="-0.00000000" cV="-0.87940778" dV="0.29365793" pRange="normalized"/>
            </geometry>
            <geometry s="16.67588156" x="654.97276235" y="496.54251512" hdg="-1.93801396" length="14.29562842">
                <line/>
            </geometry>
            <geometry s="30.97150998" x="649.84034646" y="483.19997792" hdg="-1.93801396" length="13.88998818">
                <paramPoly3 aU="-0.00000000" bU="10.41749031" cU="10.41746244" dU="-6.94497859" aV="0.00000000" bV="0.00000000" cV="0.04177179" dV="-0.02283130" pRange="normalized"/>
            </geometry>
            <geometry s="44.86149816" x="644.87124625" y="470.22924994" hdg="-1.93656930" length="0.87772938">
                <paramPoly3 aU="-0.00000000" bU="0.65829624" cU="0.65830690" dU="-0.43887554" aV="0.00000000" bV="0.00000000" cV="-0.00073246" dV="0.00185820" pRange="normalized"/>
            </geometry>
            <geometry s="45.73922754" x="644.55835960" y="469.40918351" hdg="-1.93032636" length="13.88982313">
                <paramPoly3 aU="-0.00000000" bU="10.41735513" cU="10.41751568" dU="-6.94506466" aV="0.00000000" bV="-0.00000000" cV="-0.04514296" dV="0.04949681" pRange="normalized"/>
            </geometry>
            <geometry s="59.62905067" x="639.67552406" y="456.40592811" hdg="-1.92473907" length="35.62415020">
                <line/>
            </geometry>
        </planView>
        <elevationProfile>
            <elevation s="0" a="0.00" b="0" c="0" d="0"/>
        </elevationProfile>
        <lateralProfile/>
        <lanes>
            <laneSection s="0">
                <center>
                    <lane id="0" type="none" level="true">
                        <link/>
                        <roadMark sOffset="0" type="solid" weight="standard" color="standard" width="0.13" laneChange="none"/>
                    </lane>
                </center>
                <right>
                    <lane id="-1" type="driving" level="true">
                        <link/>
                        <width sOffset="0" a="3.35" b="0" c="0" d="0"/>
                        <roadMark sOffset="0" type="solid" weight="standard" color="standard" width="0.13" laneChange="none"/>
                        <speed sOffset="0" max="13.89"/>
                    </lane>
                    <lane id="-2" type="sidewalk" level="true">
                        <link/>
                        <width sOffset="0" a="2.80" b="0" c="0" d="0"/>
                        <roadMark sOffset="0" type="solid" weight="standard" color="standard" width="0.13" laneChange="none"/>
                        <speed sOffset="0" max="13.89"/>
                    </lane>
                 </right>
            </laneSection>
        </lanes>
        <objects/>
    </road>
    <road name="Auditorium Road" length="56.22757619" id="252" junction="-1">
        <link>
            <predecessor elementType="junction" elementId="5"/>
            <successor elementType="junction" elementId="6"/>
        </link>
        <type s="0" type="town"/>
        <planView>
            <geometry s="0.00000000" x="610.15313439" y="29.45488286" hdg="2.31161102" length="44.59731629">
                <line/>
            </geometry>
            <geometry s="44.59731629" x="580.05488224" y="62.36408882" hdg="2.31161102" length="11.17599942">
                <paramPoly3 aU="0.00000000" bU="8.38199945" cU="8.38199945" dU="-5.58800037" aV="-0.00000000" bV="0.00000000" cV="-0.00607935" dV="0.00202645" pRange="normalized"/>
            </geometry>
            <geometry s="55.77331570" x="572.51531098" y="70.61380547" hdg="2.31088573" length="0.45426049">
                <line/>
            </geometry>
        </planView>
        <elevationProfile>
            <elevation s="0" a="0.00" b="0" c="0" d="0"/>
        </elevationProfile>
        <lateralProfile/>
        <lanes>
            <laneSection s="0">
                <center>
                    <lane id="0" type="none" level="true">
                        <link/>
                        <roadMark sOffset="0" type="solid" weight="standard" color="standard" width="0.13" laneChange="none"/>
                    </lane>
                </center>
                <right>
                    <lane id="-1" type="driving" level="true">
                        <link/>
                        <width sOffset="0" a="3.35" b="0" c="0" d="0"/>
                        <roadMark sOffset="0" type="solid" weight="standard" color="standard" width="0.13" laneChange="none"/>
                        <speed sOffset="0" max="11.18"/>
                    </lane>
                    <lane id="-2" type="sidewalk" level="true">
                        <link/>
                        <width sOffset="0" a="2.80" b="0" c="0" d="0"/>
                        <roadMark sOffset="0" type="solid" weight="standard" color="standard" width="0.13" laneChange="none"/>
                        <speed sOffset="0" max="11.18"/>
                    </lane>
                 </right>
            </laneSection>
        </lanes>
        <objects/>
    </road>
    <road name="Beal Street" length="267.56917774" id="253" junction="-1">
        <link>
            <predecessor elementType="junction" elementId="7"/>
            <successor elementType="junction" elementId="8"/>
        </link>
        <type s="0" type="town"/>
        <planView>
            <geometry s="0.00000000" x="-222.55785195" y="378.40100160" hdg="-0.23567153" length="4.73729781">
                <line/>
            </geometry>
            <geometry s="4.73729781" x="-217.95150366" y="377.29486149" hdg="-0.23567153" length="11.14617436">
                <paramPoly3 aU="0.00000000" bU="8.35671611" cU="8.30730893" dU="-5.55534705" aV="0.00000000" bV="0.00000000" cV="1.66872113" dV="-0.80393300" pRange="normalized"/>
            </geometry>
            <geometry s="15.88347217" x="-206.94796982" y="375.54191302" hdg="-0.12467738" length="8.36163704">
                <paramPoly3 aU="0.00000000" bU="6.27061042" cU="6.25594778" dU="-4.17397974" aV="0.00000000" bV="0.00000000" cV="0.75823830" dV="-0.38723680" pRange="normalized"/>
            </geometry>
            <geometry s="24.24510921" x="-198.61408968" y="374.87135301" hdg="-0.06807113" length="11.17374527">
                <paramPoly3 aU="0.00000000" bU="8.38008793" cU="8.38258518" dU="-5.58968947" aV="0.00000000" bV="0.00000000" cV="0.05087367" dV="0.05127473" pRange="normalized"/>
            </geometry>
            <geometry s="35.41885448" x="-187.46003407" y="374.21329444" hdg="-0.03756893" length="30.25781503">
                <line/>
            </geometry>
            <geometry s="65.67666951" x="-157.22356983" y="373.07680824" hdg="-0.03756893" length="11.17352679">
                <paramPoly3 aU="0.00000000" bU="8.37989009" cU="8.37602594" dU="-5.58554175" aV="0.00000000" bV="-0.00000000" cV="-0.47522827" dV="0.22454658" pRange="normalized"/>
            </geometry>
            <geometry s="76.85019630" x="-146.07049331" y="372.40674319" hdg="-0.07060840" length="10.00805142">
                <paramPoly3 aU="0.00000000" bU="7.50576861" cU="7.50853469" dU="-5.00731284" aV="0.00000000" bV="0.00000000" cV="-0.08504013" dV="-0.03341117" pRange="normalized"/>
            </geometry>
            <geometry s="86.85824771" x="-136.09679435" y="371.58259640" hdg="-0.10663033" length="11.16566635">
                <paramPoly3 aU="0.00000000" bU="8.37318524" cU="8.38440795" dU="-5.59596976" aV="0.00000000" bV="0.00000000" cV="-0.16091879" dV="-0.08109985" pRange="normalized"/>
            </geometry>
            <geometry s="98.02391406" x="-125.02432245" y="370.15403888" hdg="-0.17417536" length="16.08086957">
                <line/>
            </geometry>
            <geometry s="114.10478363" x="-109.18675997" y="367.36728795" hdg="-0.17417536" length="5.00633403">
                <paramPoly3 aU="0.00000000" bU="3.75384150" cU="3.72057615" dU="-2.48414745" aV="0.00000000" bV="0.00000000" cV="-0.86495421" dV="0.47966269" pRange="normalized"/>
            </geometry>
            <geometry s="119.11111766" x="-104.33876314" y="366.12303194" hdg="-0.25175252" length="7.28299687">
                <paramPoly3 aU="0.00000000" bU="5.46210707" cU="5.46386920" dU="-3.64316731" aV="0.00000000" bV="0.00000000" cV="0.13095774" dV="-0.13356780" pRange="normalized"/>
            </geometry>
            <geometry s="126.39411454" x="-97.28617776" y="364.30634470" hdg="-0.27716448" length="11.16749716">
                <paramPoly3 aU="0.00000000" bU="8.37482036" cU="8.38430146" dU="-5.59418517" aV="0.00000000" bV="0.00000000" cV="-0.06409916" dV="-0.11834218" pRange="normalized"/>
            </geometry>
            <geometry s="137.56161170" x="-86.59727016" y="361.07581076" hdg="-0.33489627" length="12.32608609">
                <line/>
            </geometry>
            <geometry s="149.88769779" x="-74.95596708" y="357.02458120" hdg="-0.33489627" length="7.43058995">
                <paramPoly3 aU="0.00000000" bU="5.57208896" cU="5.54111780" dU="-3.69764372" aV="0.00000000" bV="0.00000000" cV="-1.01713668" dV="0.56306511" pRange="normalized"/>
            </geometry>
            <geometry s="157.31828774" x="-68.10162029" y="354.15845381" hdg="-0.39686567" length="5.07414687">
                <paramPoly3 aU="0.00000000" bU="3.80447722" cU="3.81868268" dU="-2.55052721" aV="0.00000000" bV="0.00000000" cV="0.31045424" dV="-0.31649818" pRange="normalized"/>
            </geometry>
            <geometry s="162.39243461" x="-63.42558381" y="352.19215732" hdg="-0.48334166" length="12.65036471">
                <line/>
            </geometry>
            <geometry s="175.04279932" x="-52.22435806" y="346.31301887" hdg="-0.48334166" length="11.17002101">
                <paramPoly3 aU="0.00000000" bU="8.37695018" cU="8.36660379" dU="-5.58101610" aV="0.00000000" bV="0.00000000" cV="-0.75702309" dV="0.36937439" pRange="normalized"/>
            </geometry>
            <geometry s="186.21282033" x="-42.52068001" y="340.78209167" hdg="-0.53181778" length="7.33735296">
                <paramPoly3 aU="0.00000000" bU="5.50285729" cU="5.50091415" dU="-3.66823867" aV="0.00000000" bV="0.00000000" cV="-0.28288414" dV="0.12917286" pRange="normalized"/>
            </geometry>
            <geometry s="193.55017330" x="-36.27622902" y="336.92975470" hdg="-0.56421566" length="11.17405492">
                <paramPoly3 aU="0.00000000" bU="8.38049304" cU="8.38047241" dU="-5.58729034" aV="0.00000000" bV="0.00000000" cV="-0.12735771" dV="0.04337422" pRange="normalized"/>
            </geometry>
            <geometry s="204.72422822" x="-26.87929137" y="330.88362940" hdg="-0.57908320" length="7.07491593">
                <paramPoly3 aU="0.00000000" bU="5.30610183" cU="5.30630440" dU="-3.53808069" aV="0.00000000" bV="0.00000000" cV="-0.11479094" dV="0.03264615" pRange="normalized"/>
            </geometry>
            <geometry s="211.79914415" x="-21.00328472" y="326.94340408" hdg="-0.60389556" length="11.17369120">
                <paramPoly3 aU="0.00000000" bU="8.38005199" cU="8.38263129" dU="-5.58967095" aV="0.00000000" bV="0.00000000" cV="-0.02949880" dV="-0.06389442" pRange="normalized"/>
            </geometry>
            <geometry s="222.97283535" x="-11.85947945" y="320.52189710" hdg="-0.63381403" length="20.29951678">
                <line/>
            </geometry>
            <geometry s="243.27235213" x="4.49735602" y="308.50007050" hdg="-0.63381403" length="11.17459224">
                <paramPoly3 aU="0.00000000" bU="8.38084281" cU="8.37765221" dU="-5.58558064" aV="0.00000000" bV="0.00000000" cV="-0.40180704" dV="0.21613167" pRange="normalized"/>
            </geometry>
            <geometry s="254.44694437" x="13.39024579" y="301.73360890" hdg="-0.65233579" length="1.44709280">
                <paramPoly3 aU="0.00000000" bU="1.08521726" cU="1.08648885" dU="-0.72490636" aV="0.00000000" bV="0.00000000" cV="-0.00240703" dV="-0.01887965" pRange="normalized"/>
            </geometry>
            <geometry s="255.89403716" x="14.52704937" y="300.83842161" hdg="-0.70899346" length="11.16455491">
                <paramPoly3 aU="0.00000000" bU="8.37259312" cU="8.38377365" dU="-5.59307417" aV="0.00000000" bV="0.00000000" cV="0.25997607" dV="-0.32065201" pRange="normalized"/>
            </geometry>
            <geometry s="267.05859208" x="22.96068050" y="293.52428125" hdg="-0.76180977" length="0.51058567">
                <line/>
            </geometry>
        </planView>
        <elevationProfile>
            <elevation s="0" a="0.00" b="0" c="0" d="0"/>
        </elevationProfile>
        <lateralProfile/>
        <lanes>
            <laneSection s="0">
                <center>
                    <lane id="0" type="none" level="true">
                        <link/>
                        <roadMark sOffset="0" type="solid" weight="standard" color="standard" width="0.13" laneChange="none"/>
                    </lane>
                </center>
                <right>
                    <lane id="-1" type="driving" level="true">
                        <link/>
                        <width sOffset="0" a="3.35" b="0" c="0" d="0"/>
                        <roadMark sOffset="0" type="solid" weight="standard" color="standard" width="0.13" laneChange="none"/>
                        <speed sOffset="0" max="11.18"/>
                    </lane>
                    <lane id="-2" type="sidewalk" level="true">
                        <link/>
                        <width sOffset="0" a="2.80" b="0" c="0" d="0"/>
                        <roadMark sOffset="0" type="solid" weight="standard" color="standard" width="0.13" laneChange="none"/>
                        <speed sOffset="0" max="11.18"/>
                    </lane>
                 </right>
            </laneSection>
        </lanes>
        <objects/>
    </road>
    <road name="East Circle Drive" length="409.85675123" id="254" junction="-1">
        <link>
            <predecessor elementType="junction" elementId="9"/>
            <successor elementType="junction" elementId="10"/>
        </link>
        <type s="0" type="town"/>
        <planView>
            <geometry s="0.00000000" x="592.59058190" y="231.44919424" hdg="0.95109589" length="14.21250668">
                <line/>
            </geometry>
            <geometry s="14.21250668" x="600.84508251" y="243.01892049" hdg="0.95109589" length="9.04028240">
                <paramPoly3 aU="0.00000000" bU="6.77876377" cU="6.78291357" dU="-4.53119344" aV="0.00000000" bV="0.00000000" cV="-0.51835485" dV="0.14131127" pRange="normalized"/>
            </geometry>
            <geometry s="23.25278908" x="606.39684249" y="250.15122463" hdg="0.86057592" length="7.07839041">
                <paramPoly3 aU="0.00000000" bU="5.30572948" cU="5.32257091" dU="-3.56774236" aV="0.00000000" bV="0.00000000" cV="-0.53952995" dV="0.09870657" pRange="normalized"/>
            </geometry>
            <geometry s="30.33117949" x="611.33457304" y="255.21725089" hdg="0.71247001" length="7.54556289">
                <paramPoly3 aU="0.00000000" bU="5.65576063" cU="5.64809614" dU="-3.78722274" aV="0.00000000" bV="-0.00000000" cV="-0.95957663" dV="0.35368248" pRange="normalized"/>
            </geometry>
            <geometry s="37.87674239" x="617.41885831" y="259.67240156" hdg="0.56015935" length="5.95309933">
                <paramPoly3 aU="0.00000000" bU="4.46158750" cU="4.44941044" dU="-2.98691713" aV="0.00000000" bV="0.00000000" cV="-0.88388905" dV="0.34232678" pRange="normalized"/>
            </geometry>
            <geometry s="43.82984172" x="622.72530807" y="262.36119573" hdg="0.39334775" length="6.23385201">
                <paramPoly3 aU="0.00000000" bU="4.67329786" cU="4.66454622" dU="-3.12302062" aV="0.00000000" bV="0.00000000" cV="-0.73884946" dV="0.28926563" pRange="normalized"/>
            </geometry>
            <geometry s="50.06369373" x="628.63783000" y="264.32798009" hdg="0.26246656" length="6.42916388">
                <paramPoly3 aU="0.00000000" bU="4.81841778" cU="4.85049654" dU="-3.25475369" aV="0.00000000" bV="-0.00000000" cV="-0.31776603" dV="-0.04757851" pRange="normalized"/>
            </geometry>
            <geometry s="56.49285761" x="634.92711799" y="265.63938764" hdg="0.10023656" length="7.42640910">
                <paramPoly3 aU="0.00000000" bU="5.56487579" cU="5.56722483" dU="-3.74307556" aV="0.00000000" bV="0.00000000" cV="-1.00371661" dV="0.32825311" pRange="normalized"/>
            </geometry>
            <geometry s="63.91926671" x="642.34664681" y="265.70672543" hdg="-0.08458689" length="6.31441456">
                <paramPoly3 aU="0.00000000" bU="4.73293111" cU="4.66516346" dU="-3.12579065" aV="0.00000000" bV="0.00000000" cV="-1.41616739" dV="0.72222359" pRange="normalized"/>
            </geometry>
            <geometry s="70.23368128" x="648.53789654" y="264.48534047" hdg="-0.22569995" length="4.16744884">
                <paramPoly3 aU="0.00000000" bU="3.12500818" cU="3.12233828" dU="-2.08524016" aV="0.00000000" bV="0.00000000" cV="-0.32287682" dV="0.12775347" pRange="normalized"/>
            </geometry>
            <geometry s="74.40113012" x="652.55077589" y="263.36373391" hdg="-0.30979665" length="4.47573313">
                <paramPoly3 aU="0.00000000" bU="3.35417334" cU="3.38890965" dU="-2.27354471" aV="0.00000000" bV="0.00000000" cV="0.06869338" dV="-0.22386659" pRange="normalized"/>
            </geometry>
            <geometry s="78.87686325" x="656.76023755" y="261.85334199" hdg="-0.46974595" length="22.10730238">
                <line/>
            </geometry>
            <geometry s="100.98416563" x="676.47295026" y="251.84625569" hdg="-0.46974595" length="8.56922841">
                <paramPoly3 aU="0.00000000" bU="6.42389889" cU="6.43284480" dU="-4.30786401" aV="0.00000000" bV="0.00000000" cV="0.72485233" dV="-0.19638105" pRange="normalized"/>
            </geometry>
            <geometry s="109.55339404" x="684.33506133" y="248.44775084" hdg="-0.33537950" length="8.89285211">
                <paramPoly3 aU="0.00000000" bU="6.66779349" cU="6.63479708" dU="-4.43395093" aV="0.00000000" bV="0.00000000" cV="1.20947081" dV="-0.58794943" pRange="normalized"/>
            </geometry>
            <geometry s="118.44624615" x="692.91414871" y="246.11573078" hdg="-0.23697337" length="11.16204443">
                <paramPoly3 aU="0.00000000" bU="8.37106236" cU="8.37152713" dU="-5.58403641" aV="0.00000000" bV="0.00000000" cV="0.36916639" dV="-0.11636015" pRange="normalized"/>
            </geometry>
            <geometry s="129.60829058" x="703.82020252" y="243.74187141" hdg="-0.19045684" length="9.78379117">
                <paramPoly3 aU="0.00000000" bU="7.33745148" cU="7.33391581" dU="-4.89172467" aV="0.00000000" bV="-0.00000000" cV="0.47084240" dV="-0.20450522" pRange="normalized"/>
            </geometry>
            <geometry s="139.39208174" x="713.47342783" y="242.15203300" hdg="-0.14571670" length="10.87765964">
                <paramPoly3 aU="0.00000000" bU="8.15795213" cU="8.15946448" dU="-5.44149646" aV="0.00000000" bV="0.00000000" cV="0.21282691" dV="-0.04150091" pRange="normalized"/>
            </geometry>
            <geometry s="150.26974139" x="724.25896282" y="240.74234265" hdg="-0.10879327" length="8.95772804">
                <paramPoly3 aU="0.00000000" bU="6.71803538" cU="6.71377891" dU="-4.47739423" aV="0.00000000" bV="0.00000000" cV="0.44159114" dV="-0.21131538" pRange="normalized"/>
            </geometry>
            <geometry s="159.22746943" x="733.18544604" y="239.99899693" hdg="-0.07168520" length="28.01763726">
                <line/>
            </geometry>
            <geometry s="187.24510669" x="761.13112606" y="237.99226681" hdg="-0.07168520" length="11.17599995">
                <paramPoly3 aU="0.00000000" bU="8.38199996" cU="8.38199996" dU="-5.58800003" aV="0.00000000" bV="0.00000000" cV="-0.00171473" dV="0.00057158" pRange="normalized"/>
            </geometry>
            <geometry s="198.42110664" x="772.27834093" y="237.19065883" hdg="-0.07188977" length="16.00122185">
                <line/>
            </geometry>
            <geometry s="214.42232849" x="788.23823232" y="236.04132526" hdg="-0.07188977" length="11.17572874">
                <paramPoly3 aU="0.00000000" bU="8.38174314" cU="8.38174313" dU="-5.58817121" aV="0.00000000" bV="-0.00000000" cV="-0.13123842" dV="0.04374882" pRange="normalized"/>
            </geometry>
            <geometry s="225.59805723" x="799.37839783" y="235.15136265" hdg="-0.08754710" length="37.67282580">
                <line/>
            </geometry>
            <geometry s="263.27088303" x="836.90694422" y="231.85742741" hdg="-0.08754710" length="11.17598153">
                <paramPoly3 aU="0.00000000" bU="8.38198251" cU="8.38198251" dU="-5.58801166" aV="0.00000000" bV="-0.00000000" cV="-0.03424501" dV="0.01141505" pRange="normalized"/>
            </geometry>
            <geometry s="274.44686456" x="848.03809977" y="230.85751193" hdg="-0.09163265" length="22.64919129">
                <line/>
            </geometry>
            <geometry s="297.09605585" x="870.59227013" y="228.78500974" hdg="-0.09163265" length="11.17022302">
                <paramPoly3 aU="0.00000000" bU="8.37706659" cU="8.36814599" dU="-5.58236447" aV="0.00000000" bV="0.00000000" cV="-0.72421679" dV="0.34105564" pRange="normalized"/>
            </geometry>
            <geometry s="308.26627887" x="881.67322542" y="227.38200560" hdg="-0.14242006" length="10.31870535">
                <paramPoly3 aU="0.00000000" bU="7.73890338" cU="7.73605412" dU="-5.15806071" aV="0.00000000" bV="0.00000000" cV="-0.37291327" dV="0.18889191" pRange="normalized"/>
            </geometry>
            <geometry s="318.58498422" x="891.85954787" y="225.73547651" hdg="-0.16557151" length="11.17543146">
                <paramPoly3 aU="0.00000000" bU="8.38156181" cU="8.38136646" dU="-5.58764716" aV="0.00000000" bV="0.00000000" cV="-0.10544349" dV="0.05058576" pRange="normalized"/>
            </geometry>
            <geometry s="329.76041567" x="902.87295801" y="223.83950332" hdg="-0.17262630" length="2.96847852">
                <paramPoly3 aU="0.00000000" bU="2.22630330" cU="2.22697238" dU="-1.48496816" aV="0.00000000" bV="0.00000000" cV="-0.00658369" dV="-0.01739858" pRange="normalized"/>
            </geometry>
            <geometry s="332.72889420" x="905.79302827" y="223.30601071" hdg="-0.20199001" length="11.17205102">