<?xml version="1.0" encoding="UTF-8"?>

<!-- generated on 2024-10-13 20:40:41 by 
<configuration xmlns:xsi="http://www.w3.org/2001/XMLSchema-instance" xsi:noNamespaceSchemaLocation="http://sumo.dlr.de/xsd/Configuration.xsd">

    <input>
        <osm-files value="TRUE"/>
    </input>

    <output>
        <opendrive-output value="TRUE"/>
    </output>

    <projection>
        <proj value="+proj=tmerc +lat_0=42.721069 +lon_0=-84.482018"/>
    </projection>

    <processing>
        <geometry.remove value="true"/>
        <offset.disable-normalization value="true"/>
        <roundabouts.guess value="true"/>
        <edges.join value="true"/>
    </processing>

    <building_defaults>
        <default.lanewidth value="3.350000"/>
        <default.sidewalk-width value="2.800000"/>
    </building_defaults>

    <tls_building>
        <tls.group-signals value="true"/>
    </tls_building>

    <ramp_guessing>
        <ramps.guess value="true"/>
    </ramp_guessing>

    <edge_removal>
        <keep-edges.by-type value="highway.motorway,highway.motorway_link,highway.trunk,highway.trunk_link,highway.primary,highway.primary_link,highway.secondary,highway.secondary_link,highway.tertiary,highway.tertiary_link,highway.unclassified,highway.residential,"/>
    </edge_removal>

    <junctions>
        <junctions.join value="true"/>
    </junctions>

    <pedestrian>
        <sidewalks.guess value="true"/>
    </pedestrian>

    <formats>
        <osm.sidewalks value="true"/>
        <osm.crossings value="true"/>
    </formats>

    <report>
        <aggregate-warnings value="5"/>
    </report>

</configuration>
-->

<OpenDRIVE>
    <header revMajor="1" revMinor="4" name="" version="1.00" date="Sun Oct 13 20:40:41 2024" north="773.12" south="-125.24" east="1071.20" west="-34.84">
        <geoReference>
 <![CDATA[
 +proj=tmerc +lat_0=42.721069 +lon_0=-84.482018
]]>
        </geoReference>
    </header>
    <road name="Bogue Street" length="43.91215387" id="300" junction="-1">
        <link>
            <predecessor elementType="junction" elementId="1"/>
            <successor elementType="junction" elementId="2"/>
        </link>
        <type s="0" type="town"/>
        <planView>
            <geometry s="0.00000000" x="839.01322469" y="434.75787502" hdg="1.93308958" length="10.16127849">
                <line/>
            </geometry>
            <geometry s="10.16127849" x="835.41186892" y="444.25954945" hdg="1.93308958" length="13.88955840">
                <paramPoly3 aU="0.00000000" bU="10.41713927" cU="10.41606535" dU="-6.94416656" aV="-0.00000000" bV="0.00000000" cV="-0.25908555" dV="0.14349822" pRange="normalized"/>
            </geometry>
            <geometry s="24.05083689" x="830.59740641" y="457.28796798" hdg="1.92467292" length="0.15979164">
                <paramPoly3 aU="0.00000000" bU="0.11984343" cU="0.11982964" dU="-0.07988724" aV="-0.00000000" bV="-0.00000000" cV="-0.00317954" dV="0.00186490" pRange="normalized"/>
            </geometry>
            <geometry s="24.21062853" x="830.54326793" y="457.43830847" hdg="1.91829462" length="13.88997769">
                <paramPoly3 aU="0.00000000" bU="10.41748178" cU="10.41750041" dU="-6.94500648" aV="-0.00000000" bV="0.00000000" cV="-0.01881924" dV="0.01911470" pRange="normalized"/>
            </geometry>
            <geometry s="38.10060623" x="825.81280477" y="470.49794642" hdg="1.92018621" length="5.81154765">
                <line/>
            </geometry>
        </planView>
        <elevationProfile>
            <elevation s="0.000000" a="-0.014296" b="-0.016949" c="0.000000" d="0.000000"/>
        </elevationProfile>
        <lateralProfile/>
        <lanes>
            <laneSection s="0">
                <center>
                    <lane id="0" type="none" level="true">
                        <link/>
                        <roadMark sOffset="0" type="solid" weight="standard" color="standard" width="0.13" laneChange="none"/>
                    </lane>
                </center>
                <right>
                    <lane id="-1" type="driving" level="true">
                        <link/>
                        <width sOffset="0" a="3.35" b="0" c="0" d="0"/>
                        <roadMark sOffset="0" type="solid" weight="standard" color="standard" width="0.13" laneChange="none"/>
                        <speed sOffset="0" max="13.89"/>
                    </lane>
                    <lane id="-2" type="sidewalk" level="true">
                        <link/>
                        <width sOffset="0" a="2.80" b="0" c="0" d="0"/>
                        <roadMark sOffset="0" type="solid" weight="standard" color="standard" width="0.13" laneChange="none"/>
                        <speed sOffset="0" max="13.89"/>
                    </lane>
                 </right>
            </laneSection>
        </lanes>
        <objects/>
    </road>
    <road name="Wilson Road" length="27.42001823" id="301" junction="-1">
        <link>
            <predecessor elementType="junction" elementId="3"/>
            <successor elementType="junction" elementId="4"/>
        </link>
        <type s="0" type="town"/>
        <planView>
            <geometry s="0.00000000" x="379.66701390" y="240.82552294" hdg="3.12057712" length="27.42001823">
                <line/>
            </geometry>
        </planView>
        <elevationProfile>
            <elevation s="0.000000" a="-0.016937" b="-0.005638" c="0.000000" d="0.000000"/>
        </elevationProfile>
        <lateralProfile/>
        <lanes>
            <laneSection s="0">
                <center>
                    <lane id="0" type="none" level="true">
                        <link/>
                        <roadMark sOffset="0" type="solid" weight="standard" color="standard" width="0.13" laneChange="none"/>
                    </lane>
                </center>
                <right>
                    <lane id="-1" type="driving" level="true">
                        <link/>
                        <width sOffset="0" a="3.35" b="0" c="0" d="0"/>
                        <roadMark sOffset="0" type="solid" weight="standard" color="standard" width="0.13" laneChange="none"/>
                        <speed sOffset="0" max="11.18"/>
                    </lane>
                    <lane id="-2" type="sidewalk" level="true">
                        <link/>
                        <width sOffset="0" a="2.80" b="0" c="0" d="0"/>
                        <roadMark sOffset="0" type="solid" weight="standard" color="standard" width="0.13" laneChange="none"/>
                        <speed sOffset="0" max="11.18"/>
                    </lane>
                 </right>
            </laneSection>
        </lanes>
        <objects/>
    </road>
    <road name="Wilson Road" length="49.55260607" id="302" junction="-1">
        <link>
            <predecessor elementType="junction" elementId="5"/>
            <successor elementType="junction" elementId="4"/>
        </link>
        <type s="0" type="town"/>
        <planView>
            <geometry s="0.00000000" x="262.49524310" y="243.26135047" hdg="-0.02075519" length="49.55260607">
                <line/>
            </geometry>
        </planView>
        <elevationProfile>
            <elevation s="0.000000" a="0.002248" b="-0.015004" c="0.000000" d="0.000000"/>
        </elevationProfile>
        <lateralProfile/>
        <lanes>
            <laneSection s="0">
                <center>
                    <lane id="0" type="none" level="true">
                        <link/>
                        <roadMark sOffset="0" type="solid" weight="standard" color="standard" width="0.13" laneChange="none"/>
                    </lane>
                </center>
                <right>
                    <lane id="-1" type="driving" level="true">
                        <link/>
                        <width sOffset="0" a="3.35" b="0" c="0" d="0"/>
                        <roadMark sOffset="0" type="solid" weight="standard" color="standard" width="0.13" laneChange="none"/>
                        <speed sOffset="0" max="11.18"/>
                    </lane>
                    <lane id="-2" type="sidewalk" level="true">
                        <link/>
                        <width sOffset="0" a="2.80" b="0" c="0" d="0"/>
                        <roadMark sOffset="0" type="solid" weight="standard" color="standard" width="0.13" laneChange="none"/>
                        <speed sOffset="0" max="11.18"/>
                    </lane>
                 </right>
            </laneSection>
        </lanes>
        <objects/>
    </road>
    <road name="Farm Lane" length="190.36580789" id="303" junction="-1">
        <link>
            <predecessor elementType="junction" elementId="6"/>
            <successor elementType="junction" elementId="7"/>
        </link>
        <type s="0" type="town"/>
        <planView>
            <geometry s="0.00000000" x="332.21368592" y="260.59087937" hdg="1.54447363" length="33.71190186">
                <line/>
            </geometry>
            <geometry s="33.71190186" x="333.10097146" y="294.29110268" hdg="1.54447363" length="11.17569966">
                <paramPoly3 aU="0.00000000" bU="8.38171561" cU="8.38171559" dU="-5.58818956" aV="0.00000000" bV="-0.00000000" cV="0.13809366" dV="-0.04603434" pRange="normalized"/>
            </geometry>
            <geometry s="44.88760152" x="333.30307252" y="305.46489593" hdg="1.56094885" length="80.69774891">
                <line/>
            </geometry>
            <geometry s="125.58535043" x="334.09772924" y="386.15873213" hdg="1.56094885" length="11.17598832">
                <paramPoly3 aU="0.00000000" bU="8.38198894" cU="8.38198894" dU="-5.58800738" aV="0.00000000" bV="-0.00000000" cV="-0.02723777" dV="0.00907928" pRange="normalized"/>
            </geometry>
            <geometry s="136.76133875" x="334.22594023" y="397.33398193" hdg="1.55769929" length="53.60446914">
                <line/>
            </geometry>
        </planView>
        <elevationProfile>
            <elevation s="0.000000" a="-0.008249" b="-0.008405" c="0.000000" d="0.000000"/>
        </elevationProfile>
        <lateralProfile/>
        <lanes>
            <laneSection s="0">
                <center>
                    <lane id="0" type="none" level="true">
                        <link/>
                        <roadMark sOffset="0" type="solid" weight="standard" color="standard" width="0.13" laneChange="none"/>
                    </lane>
                </center>
                <right>
                    <lane id="-1" type="driving" level="true">
                        <link/>
                        <width sOffset="0" a="3.35" b="0" c="0" d="0"/>
                        <roadMark sOffset="0" type="broken" weight="standard" color="standard" width="0.13" laneChange="both"/>
                        <speed sOffset="0" max="11.18"/>
                    </lane>
                    <lane id="-2" type="driving" level="true">
                        <link/>
                        <width sOffset="0" a="3.35" b="0" c="0" d="0"/>
                        <roadMark sOffset="0" type="solid" weight="standard" color="standard" width="0.13" laneChange="none"/>
                        <speed sOffset="0" max="11.18"/>
                    </lane>
                    <lane id="-3" type="sidewalk" level="true">
                        <link/>
                        <width sOffset="0" a="2.80" b="0" c="0" d="0"/>
                        <roadMark sOffset="0" type="solid" weight="standard" color="standard" width="0.13" laneChange="none"/>
                        <speed sOffset="0" max="11.18"/>
                    </lane>
                 </right>
            </laneSection>
        </lanes>
        <objects/>
    </road>
    <road name="Farm Lane" length="10.78893950" id="304" junction="-1">
        <link>
            <predecessor elementType="junction" elementId="4"/>
            <successor elementType="junction" elementId="6"/>
        </link>
        <type s="0" type="town"/>
        <planView>
            <geometry s="0.00000000" x="331.95079083" y="249.50540775" hdg="1.54712126" length="10.78893950">
                <line/>
            </geometry>
        </planView>
        <elevationProfile>
            <elevation s="0.000000" a="0.008787" b="0.011888" c="0.000000" d="0.000000"/>
        </elevationProfile>
        <lateralProfile/>
        <lanes>
            <laneSection s="0">
                <center>
                    <lane id="0" type="none" level="true">
                        <link/>
                        <roadMark sOffset="0" type="solid" weight="standard" color="standard" width="0.13" laneChange="none"/>
                    </lane>
                </center>
                <right>
                    <lane id="-1" type="driving" level="true">
                        <link/>
                        <width sOffset="0" a="3.35" b="0" c="0" d="0"/>
                        <roadMark sOffset="0" type="broken" weight="standard" color="standard" width="0.13" laneChange="both"/>
                        <speed sOffset="0" max="11.18"/>
                    </lane>
                    <lane id="-2" type="driving" level="true">
                        <link/>
                        <width sOffset="0" a="3.35" b="0" c="0" d="0"/>
                        <roadMark sOffset="0" type="solid" weight="standard" color="standard" width="0.13" laneChange="none"/>
                        <speed sOffset="0" max="11.18"/>
                    </lane>
                    <lane id="-3" type="sidewalk" level="true">
                        <link/>
                        <width sOffset="0" a="2.80" b="0" c="0" d="0"/>
                        <roadMark sOffset="0" type="solid" weight="standard" color="standard" width="0.13" laneChange="none"/>
                        <speed sOffset="0" max="11.18"/>
                    </lane>
                 </right>
            </laneSection>
        </lanes>
        <objects/>
    </road>
    <road name="Farm Lane" length="85.15733768" id="305" junction="-1">
        <link>
            <predecessor elementType="junction" elementId="8"/>
            <successor elementType="junction" elementId="9"/>
        </link>
        <type s="0" type="town"/>
        <planView>
            <geometry s="0.00000000" x="325.01684481" y="-54.73618570" hdg="1.51912874" length="56.82717072">
                <line/>
            </geometry>
            <geometry s="56.82717072" x="327.95166118" y="2.01515072" hdg="1.51912874" length="15.64470633">
                <paramPoly3 aU="0.00000000" bU="11.73319631" cU="11.73319587" dU="-7.82426840" aV="0.00000000" bV="0.00000000" cV="0.38799699" dV="-0.12936768" pRange="normalized"/>
            </geometry>
            <geometry s="72.47187705" x="328.50120819" y="17.64975732" hdg="1.55219404" length="12.68546063">
                <line/>
            </geometry>
        </planView>
        <elevationProfile>
            <elevation s="0.000000" a="0.017638" b="0.008807" c="0.000000" d="0.000000"/>
        </elevationProfile>
        <lateralProfile/>
        <lanes>
            <laneSection s="0">
                <center>
                    <lane id="0" type="none" level="true">
                        <link/>
                        <roadMark sOffset="0" type="solid" weight="standard" color="standard" width="0.13" laneChange="none"/>
                    </lane>
                </center>
                <right>
                    <lane id="-1" type="driving" level="true">
                        <link/>
                        <width sOffset="0" a="3.35" b="0" c="0" d="0"/>
                        <roadMark sOffset="0" type="solid" weight="standard" color="standard" width="0.13" laneChange="none"/>
                        <speed sOffset="0" max="15.65"/>
                    </lane>
                 </right>
            </laneSection>
        </lanes>
        <objects/>
    </road>
    <road name="Wilson Road" length="11.45681550" id="306" junction="-1">
        <link>
            <predecessor elementType="junction" elementId="10"/>
            <successor elementType="junction" elementId="11"/>
        </link>
        <type s="0" type="town"/>
        <planView>
            <geometry s="0.00000000" x="809.80701033" y="241.27335795" hdg="-0.00103387" length="11.45681550">
                <line/>
            </geometry>
        </planView>
        <elevationProfile>
            <elevation s="0.000000" a="-0.016586" b="-0.012998" c="0.000000" d="0.000000"/>
        </elevationProfile>
        <lateralProfile/>
        <lanes>
            <laneSection s="0">
                <center>
                    <lane id="0" type="none" level="true">
                        <link/>
                        <roadMark sOffset="0" type="solid" weight="standard" color="standard" width="0.13" laneChange="none"/>
                    </lane>
                </center>
                <right>
                    <lane id="-1" type="driving" level="true">
                        <link/>
                        <width sOffset="0" a="3.35" b="0" c="0" d="0"/>
                        <roadMark sOffset="0" type="solid" weight="standard" color="standard" width="0.13" laneChange="none"/>
                        <speed sOffset="0" max="11.18"/>
                    </lane>
                    <lane id="-2" type="sidewalk" level="true">
                        <link/>
                        <width sOffset="0" a="2.80" b="0" c="0" d="0"/>
                        <roadMark sOffset="0" type="solid" weight="standard" color="standard" width="0.13" laneChange="none"/>
                        <speed sOffset="0" max="11.18"/>
                    </lane>
                 </right>
            </laneSection>
        </lanes>
        <objects/>
    </road>
    <road name="Wilson Road" length="193.92889881" id="307" junction="-1">
        <link>
            <predecessor elementType="junction" elementId="12"/>
            <successor elementType="junction" elementId="10"/>
        </link>
        <type s="0" type="town"/>
        <planView>
            <geometry s="0.00000000" x="615.57814968" y="241.36523261" hdg="-0.00046050" length="35.76077867">
                <line/>
            </geometry>
            <geometry s="35.76077867" x="651.33892455" y="241.34876472" hdg="-0.00046050" length="11.17600000">
                <paramPoly3 aU="0.00000000" bU="8.38200000" cU="8.38200000" dU="-5.58800000" aV="0.00000000" bV="-0.00000000" cV="-0.00033985" dV="0.00011328" pRange="normalized"/>
            </geometry>
            <geometry s="46.93677867" x="662.51492326" y="241.34339159" hdg="-0.00050105" length="44.36445696">
                <line/>
            </geometry>
            <geometry s="91.30123563" x="706.87937466" y="241.32116293" hdg="-0.00050105" length="11.17600000">
                <paramPoly3 aU="0.00000000" bU="8.38200000" cU="8.38200000" dU="-5.58800000" aV="0.00000000" bV="0.00000000" cV="0.00033174" dV="-0.00011058" pRange="normalized"/>
            </geometry>
            <geometry s="102.47723563" x="718.05537336" y="241.31578439" hdg="-0.00046147" length="91.45166318">
                <line/>
            </geometry>
        </planView>
        <elevationProfile>
            <elevation s="0.000000" a="0.007086" b="-0.007722" c="0.000000" d="0.000000"/>
        </elevationProfile>
        <lateralProfile/>
        <lanes>
            <laneSection s="0">
                <center>
                    <lane id="0" type="none" level="true">
                        <link/>
                        <roadMark sOffset="0" type="solid" weight="standard" color="standard" width="0.13" laneChange="none"/>
                    </lane>
                </center>
                <right>
                    <lane id="-1" type="driving" level="true">
                        <link/>
                        <width sOffset="0" a="3.35" b="0" c="0" d="0"/>
                        <roadMark sOffset="0" type="solid" weight="standard" color="standard" width="0.13" laneChange="none"/>
                        <speed sOffset="0" max="11.18"/>
                    </lane>
                    <lane id="-2" type="sidewalk" level="true">
                        <link/>
                        <width sOffset="0" a="2.80" b="0" c="0" d="0"/>
                        <roadMark sOffset="0" type="solid" weight="standard" color="standard" width="0.13" laneChange="none"/>
                        <speed sOffset="0" max="11.18"/>
                    </lane>
                 </right>
            </laneSection>
        </lanes>
        <objects/>
    </road>
    <road name="Farm Lane" length="3.05334007" id="308" junction="-1">
        <link>
            <predecessor elementType="junction" elementId="13"/>
            <successor elementType="junction" elementId="14"/>
        </link>
        <type s="0" type="town"/>
        <planView>
            <geometry s="0.00000000" x="338.78706880" y="681.31010253" hdg="1.54013565" length="3.05334007">
                <line/>
            </geometry>
        </planView>
        <elevationProfile>
            <elevation s="0.000000" a="-0.001778" b="0.002741" c="0.000000" d="0.000000"/>
        </elevationProfile>
        <lateralProfile/>
        <lanes>
            <laneSection s="0">
                <center>
                    <lane id="0" type="none" level="true">
                        <link/>
                        <roadMark sOffset="0" type="solid" weight="standard" color="standard" width="0.13" laneChange="none"/>
                    </lane>
                </center>
                <right>
                    <lane id="-1" type="driving" level="true">
                        <link/>
                        <width sOffset="0" a="3.35" b="0" c="0" d="0"/>
                        <roadMark sOffset="0" type="solid" weight="standard" color="standard" width="0.13" laneChange="none"/>
                        <speed sOffset="0" max="11.18"/>
                    </lane>
                    <lane id="-2" type="sidewalk" level="true">
                        <link/>
                        <width sOffset="0" a="2.80" b="0" c="0" d="0"/>
                        <roadMark sOffset="0" type="solid" weight="standard" color="standard" width="0.13" laneChange="none"/>
                        <speed sOffset="0" max="11.18"/>
                    </lane>
                 </right>
            </laneSection>
        </lanes>
        <objects/>
    </road>
    <road name="Farm Lane" length="120.59972831" id="309" junction="-1">
        <link>
            <predecessor elementType="junction" elementId="15"/>
            <successor elementType="junction" elementId="13"/>
        </link>
        <type s="0" type="town"/>
        <planView>
            <geometry s="0.00000000" x="337.69916262" y="560.42172277" hdg="1.56404491" length="52.22322349">
                <line/>
            </geometry>
            <geometry s="52.22322349" x="338.05174061" y="612.64375605" hdg="1.56404491" length="11.17599997">
                <paramPoly3 aU="0.00000000" bU="8.38199997" cU="8.38199997" dU="-5.58800002" aV="0.00000000" bV="-0.00000000" cV="0.00129869" dV="-0.00043290" pRange="normalized"/>
            </geometry>
            <geometry s="63.39922346" x="338.12632808" y="623.81950712" hdg="1.56419985" length="31.96019615">
                <line/>
            </geometry>
            <geometry s="95.35941961" x="338.33715127" y="655.77900793" hdg="1.56419985" length="11.17578195">
                <paramPoly3 aU="0.00000000" bU="8.38179352" cU="8.38179351" dU="-5.58813763" aV="0.00000000" bV="-0.00000000" cV="-0.11766614" dV="0.03922398" pRange="normalized"/>
            </geometry>
            <geometry s="106.53520156" x="338.48930979" y="666.95369675" hdg="1.55016178" length="14.06452675">
                <line/>
            </geometry>
        </planView>
        <elevationProfile>
            <elevation s="0.000000" a="-0.013439" b="-0.007059" c="0.000000" d="0.000000"/>
        </elevationProfile>
        <lateralProfile/>
        <lanes>
            <laneSection s="0">
                <center>
                    <lane id="0" type="none" level="true">
                        <link/>
                        <roadMark sOffset="0" type="solid" weight="standard" color="standard" width="0.13" laneChange="none"/>
                    </lane>
                </center>
                <right>
                    <lane id="-1" type="driving" level="true">
                        <link/>
                        <width sOffset="0" a="3.35" b="0" c="0" d="0"/>
                        <roadMark sOffset="0" type="solid" weight="standard" color="standard" width="0.13" laneChange="none"/>
                        <speed sOffset="0" max="11.18"/>
                    </lane>
                    <lane id="-2" type="sidewalk" level="true">
                        <link/>
                        <width sOffset="0" a="2.80" b="0" c="0" d="0"/>
                        <roadMark sOffset="0" type="solid" weight="standard" color="standard" width="0.13" laneChange="none"/>
                        <speed sOffset="0" max="11.18"/>
                    </lane>
                 </right>
            </laneSection>
        </lanes>
        <objects/>
    </road>
    <road name="Bogue Street" length="358.95488097" id="310" junction="-1">
        <link>
            <predecessor elementType="junction" elementId="11"/>
            <successor elementType="junction" elementId="16"/>
        </link>
        <type s="0" type="town"/>
        <planView>
            <geometry s="0.00000000" x="828.89598561" y="232.75701450" hdg="-1.57570462" length="3.83393017">
                <line/>
            </geometry>
            <geometry s="3.83393017" x="828.87716763" y="228.92313051" hdg="-1.57570462" length="11.17599998">
                <paramPoly3 aU="-0.00000000" bU="8.38199998" cU="8.38199998" dU="-5.58800001" aV="0.00000000" bV="0.00000000" cV="0.00107824" dV="-0.00035941" pRange="normalized"/>
            </geometry>
            <geometry s="15.00993015" x="828.82303158" y="217.74726165" hdg="-1.57557598" length="60.70949702">
                <line/>
            </geometry>
            <geometry s="75.71942716" x="828.53286216" y="157.03845809" hdg="-1.57557598" length="11.17600000">
                <paramPoly3 aU="-0.00000000" bU="8.38200000" cU="8.38200000" dU="-5.58800000" aV="0.00000000" bV="0.00000000" cV="-0.00033413" dV="0.00016596" pRange="normalized"/>
            </geometry>
            <geometry s="86.89542716" x="828.47927675" y="145.86258656" hdg="-1.57559631" length="6.04298480">
                <paramPoly3 aU="-0.00000000" bU="4.53223860" cU="4.53223860" dU="-3.02149240" aV="0.00000000" bV="0.00000000" cV="-0.00029542" dV="0.00023639" pRange="normalized"/>
            </geometry>
            <geometry s="92.93841197" x="828.45021160" y="139.81967165" hdg="-1.57557020" length="10.08684925">
                <paramPoly3 aU="-0.00000000" bU="7.56513694" cU="7.56513695" dU="-5.04342464" aV="0.00000000" bV="-0.00000000" cV="0.00127581" dV="-0.00105898" pRange="normalized"/>
            </geometry>
            <geometry s="103.02526122" x="828.40227527" y="129.73293631" hdg="-1.57565286" length="24.03935630">
                <line/>
            </geometry>
            <geometry s="127.06461751" x="828.28552781" y="105.69386351" hdg="-1.57565286" length="11.16214724">
                <paramPoly3 aU="-0.00000000" bU="8.36888984" cU="8.36884890" dU="-5.59667182" aV="0.00000000" bV="-0.00000000" cV="0.93724210" dV="-0.31338979" pRange="normalized"/>
            </geometry>
            <geometry s="138.22676475" x="828.85526601" y="94.54989822" hdg="-1.46377821" length="21.60413400">
                <line/>
            </geometry>
            <geometry s="159.83089876" x="831.16288912" y="73.06936095" hdg="-1.46377821" length="11.17336786">
                <paramPoly3 aU="0.00000000" bU="8.37979972" cU="8.37475311" dU="-5.58441948" aV="0.00000000" bV="0.00000000" cV="-0.51723029" dV="0.26123961" pRange="normalized"/>
            </geometry>
            <geometry s="171.00426662" x="832.10148913" y="61.93578828" hdg="-1.49370484" length="4.92841550">
                <paramPoly3 aU="0.00000000" bU="3.69626783" cU="3.69442650" dU="-2.46296020" aV="0.00000000" bV="-0.00000000" cV="-0.22079558" dV="0.14243705" pRange="normalized"/>
            </geometry>
            <geometry s="175.93268212" x="832.40287351" y="57.01665510" hdg="-1.49756821" length="11.17437304">
                <paramPoly3 aU="0.00000000" bU="8.38073910" cU="8.38102964" dU="-5.58760739" aV="0.00000000" bV="-0.00000000" cV="0.06488243" dV="-0.00556208" pRange="normalized"/>
            </geometry>
            <geometry s="187.10705516" x="833.27956660" y="45.87678032" hdg="-1.48407512" length="9.98314527">
                <paramPoly3 aU="0.00000000" bU="7.48732348" cU="7.48668610" dU="-4.99133052" aV="0.00000000" bV="-0.00000000" cV="0.17805983" dV="-0.08660542" pRange="normalized"/>
            </geometry>
            <geometry s="197.09020043" x="834.23530262" y="35.93953655" hdg="-1.47121257" length="11.17575872">
                <paramPoly3 aU="0.00000000" bU="8.38179417" cU="8.38205676" dU="-5.58818646" aV="0.00000000" bV="0.00000000" cV="0.02440472" dV="0.01254759" pRange="normalized"/>
            </geometry>
            <geometry s="208.26595915" x="835.38314795" y="24.82291418" hdg="-1.46089811" length="25.68246237">
                <line/>
            </geometry>
            <geometry s="233.94842152" x="838.19992688" y="-0.70461272" hdg="-1.46089811" length="11.17540707">
                <paramPoly3 aU="0.00000000" bU="8.38143856" cU="8.38143849" dU="-5.58837417" aV="0.00000000" bV="-0.00000000" cV="-0.19402726" dV="0.06468442" pRange="normalized"/>
            </geometry>